     360
 i =        0, time =        0.000, E =      -422.1536565482
  O         0.0235145000       14.7030000000        1.7372100000
  O         0.0768987000        0.0201055000        8.6606400000
  O        14.6595000000        4.8483300000        1.6748200000
  O        14.7018000000        4.9638500000        8.6651500000
  O        14.6829000000        9.7692100000        1.6953600000
  O         0.0159143000        9.9095900000        8.7547200000
  O         4.9888800000       14.7076000000        1.7801500000
  O         4.8810700000        0.0416443000        8.6714700000
  O         4.8627900000        4.8255200000        1.7278000000
  O         4.9108600000        4.8813900000        8.6537400000
  O         4.9034900000        9.8078400000        1.7736700000
  O         4.9539800000        9.8201100000        8.6472600000
  O         9.7890700000        0.0709264000        1.7363700000
  O         9.7754600000       14.6957000000        8.6414500000
  O         9.8431500000        4.9108500000        1.7174500000
  O         9.8371300000        4.8413600000        8.6803700000
  O         9.8469300000        9.8540400000        1.7840200000
  O         9.7921800000        9.7987100000        8.6746200000
  O         2.4523100000        2.4140300000        5.1829200000
  O         2.4026300000        2.4119900000       12.1498000000
  O         2.4778200000        7.4073800000        5.1786300000
  O         2.5255700000        7.3367500000       12.1657000000
  O         2.4661400000       12.3408000000        5.2415100000
  O         2.4521500000       12.1323000000       12.1778000000
  O         7.2858000000        2.4634500000        5.2425400000
  O         7.3310600000        2.5029400000       12.1481000000
  O         7.3612300000        7.2943200000        5.2180100000
  O         7.3758000000        7.3547900000       12.2188000000
  O         7.3651300000       12.2721000000        5.2303600000
  O         7.3472700000       12.1911000000       12.1223000000
  O        12.3009000000        2.4623300000        5.1750100000
  O        12.2011000000        2.3868400000       12.1460000000
  O        12.2268000000        7.2684900000        5.2462900000
  O        12.2166000000        7.4333800000       12.0781000000
  O        12.3712000000       12.3133000000        5.2131000000
  O        12.2904000000       12.3746000000       12.1734000000
  O         0.0483507000        0.0059488200        5.2069700000
  O        14.6581000000        0.0261263000       12.1457000000
  O        14.6742000000        4.8251100000        5.1865800000
  O         0.0003508750        4.8596800000       12.1311000000
  O         0.0506013000        9.8684900000        5.2726900000
  O        14.6020000000        9.8255100000       12.0948000000
  O         4.8699200000        0.0834754000        5.2038200000
  O         4.9061200000       14.7029000000       12.1890000000
  O         4.8682900000        4.9076900000        5.1876700000
  O         4.9230800000        4.8588900000       12.1332000000
  O         4.8952200000        9.8419600000        5.2758500000
  O         4.8709100000        9.7436200000       12.1858000000
  O         9.8811300000        0.0144915000        5.2069700000
  O         9.8123400000       14.6818000000       12.1439000000
  O         9.7426500000        4.8133200000        5.1746000000
  O         9.8357300000        4.9324400000       12.1481000000
  O         9.8238000000        9.7843300000        5.2979600000
  O         9.8165100000        9.7841400000       12.1816000000
  O         2.4002500000        2.4730200000        1.7326300000
  O         2.5514500000        2.3807800000        8.7145100000
  O         2.4107600000        7.3702500000        1.6965200000
  O         2.4544300000        7.3189500000        8.6692000000
  O         2.4663100000       12.2484000000        1.7416700000
  O         2.5035400000       12.3430000000        8.7706800000
  O         7.4262100000        2.4028600000        1.7174300000
  O         7.3309900000        2.4095500000        8.6013200000
  O         7.4081200000        7.4122800000        1.8449500000
  O         7.3380000000        7.3659000000        8.7092100000
  O         7.4225300000       12.1768000000        1.7539700000
  O         7.2657800000       12.2827000000        8.6546700000
  O        12.2272000000        2.4577400000        1.7080000000
  O        12.2466000000        2.4458400000        8.7018400000
  O        12.3906000000        7.3921200000        1.7437600000
  O        12.2705000000        7.2408300000        8.6010500000
  O        12.2478000000       12.2789000000        1.7465100000
  O        12.3801000000       12.2539000000        8.6627700000
  O         3.5806600000        1.1913300000        3.3222300000
  O         3.6723200000        1.2338700000       10.4826000000
  O         3.6095300000        6.2004000000        3.4157300000
  O         3.7102400000        6.1156600000       10.4722000000
  O         3.6878300000       11.0830000000        3.5066500000
  O         3.6956600000       11.0029000000       10.4830000000
  O         8.6285700000        1.2876900000        3.5273300000
  O         8.5665700000        1.3125700000       10.4306000000
  O         8.5991800000        6.0965200000        3.4922800000
  O         8.6184700000        6.2350900000       10.3761000000
  O         8.5590900000       11.0612000000        3.5617900000
  O         8.6142300000       11.0897000000       10.4032000000
  O        13.4703000000        1.2918700000        3.4687900000
  O        13.4442000000        1.2803700000       10.4085000000
  O        13.4867000000        6.1105200000        3.4991300000
  O        13.5508000000        6.1862700000       10.4330000000
  O        13.5413000000       11.1151000000        3.4220300000
  O        13.4710000000       11.0766000000       10.4518000000
  O         1.1764400000        1.2106800000        3.4357000000
  O         1.2244100000        1.2438200000       10.4390000000
  O         1.1915700000        6.1304600000        3.4249400000
  O         1.1986200000        6.1418600000       10.4587000000
  O         1.2756400000       11.0834000000        3.4867500000
  O         1.1612100000       11.0770000000       10.4068000000
  O         6.0926900000        1.2561600000        3.4907900000
  O         6.1326800000        1.2390700000       10.4361000000
  O         6.0594500000        6.1152800000        3.4260000000
  O         6.2028600000        6.1036500000       10.4512000000
  O         6.1152900000       11.1092000000        3.4707500000
  O         6.1342200000       11.0734000000       10.4613000000
  O        11.0323000000        1.2399100000        3.4266200000
  O        10.9919000000        1.1861900000       10.3475000000
  O        10.9876000000        6.1309300000        3.4457100000
  O        11.0562000000        6.1380400000       10.4404000000
  O        11.0430000000       11.1078000000        3.5334200000
  O        11.0002000000       11.0731000000       10.4483000000
  O         1.2409400000        3.6818700000       13.8748000000
  O         1.2465700000        3.7553600000        6.9771400000
  O         1.1809000000        8.5488900000       13.7648000000
  O         1.3186400000        8.6750700000        6.9281300000
  O         1.1635600000       13.4071000000       13.8714000000
  O         1.2862800000       13.5657000000        7.0145100000
  O         6.2018500000        3.7138100000        0.0477200000
  O         6.1087800000        3.7768900000        6.8869900000
  O         6.1442200000        8.5849700000        0.0108002000
  O         6.2202700000        8.6529500000        6.9427200000
  O         6.1267800000       13.5116000000       13.8360000000
  O         6.1181500000       13.4843000000        6.9792900000
  O        11.0716000000        3.7592000000       13.8033000000
  O        11.0293000000        3.5909600000        6.8880100000
  O        11.0755000000        8.6216100000        0.0637464000
  O        11.0481000000        8.5537600000        6.9012500000
  O        10.9668000000       13.5046000000        0.0037302800
  O        11.0366000000       13.4794000000        6.9189900000
  O         3.7116200000        3.6338400000        0.0097264600
  O         3.6355800000        3.6877300000        6.8949200000
  O         3.6922900000        8.6171200000        0.0242124000
  O         3.7083000000        8.5699300000        6.9402300000
  O         3.6882500000       13.5299000000        0.0120425000
  O         3.7385200000       13.5141000000        6.9824900000
  O         8.6280900000        3.6856400000       13.8314000000
  O         8.5419400000        3.7056900000        6.9654600000
  O         8.6246700000        8.6185400000        0.1068290000
  O         8.6300900000        8.5421100000        6.9170100000
  O         8.5279800000       13.4809000000        0.0765439000
  O         8.6962100000       13.4412000000        6.8566400000
  O        13.5105000000        3.7103900000       13.8351000000
  O        13.4706000000        3.6731700000        6.9453800000
  O        13.4858000000        8.6118500000       13.8004000000
  O        13.5958000000        8.5781500000        6.9630100000
  O        13.4814000000       13.4830000000        0.0755859000
  O        13.5488000000       13.5394000000        6.9857900000
  O         1.1728000000        3.6216600000        3.4356600000
  O         1.2852100000        3.6282000000       10.3513000000
  O         1.2513600000        8.6441400000        3.3924000000
  O         1.2001200000        8.6013900000       10.4577000000
  O         1.2834000000       13.5228000000        3.4371200000
  O         1.1900700000       13.5205000000       10.4956000000
  O         6.1843700000        3.6997100000        3.4514800000
  O         6.1130200000        3.6640500000       10.4130000000
  O         6.1487300000        8.6103200000        3.5898100000
  O         6.1276700000        8.6128500000       10.4295000000
  O         6.2004300000       13.5691000000        3.4696600000
  O         6.0651800000       13.4734000000       10.4508000000
  O        11.0160000000        3.6795800000        3.4701300000
  O        11.0206000000        3.6836300000       10.3487000000
  O        11.0891000000        8.5774700000        3.4313200000
  O        11.0099000000        8.5921900000       10.3007000000
  O        11.1148000000       13.5152000000        3.4828300000
  O        11.0574000000       13.4893000000       10.3033000000
  O         3.7335200000        3.6636200000        3.4873100000
  O         3.7165200000        3.6186400000       10.4842000000
  O         3.7311300000        8.5269300000        3.5153900000
  O         3.7035000000        8.5457900000       10.3498000000
  O         3.7984100000       13.4700000000        3.5508000000
  O         3.6692200000       13.5033000000       10.4362000000
  O         8.6377200000        3.6595000000        3.3837300000
  O         8.5727200000        3.7287800000       10.3981000000
  O         8.6705500000        8.5610200000        3.4798500000
  O         8.6290200000        8.5852400000       10.4340000000
  O         8.6753000000       13.5009000000        3.4875700000
  O         8.5779100000       13.5175000000       10.3383000000
  O        13.5472000000        3.6717100000        3.4037000000
  O        13.5061000000        3.7335000000       10.3880000000
  O        13.5712000000        8.5851600000        3.5693600000
  O        13.5659000000        8.5472100000       10.3489000000
  O        13.5483000000       13.4941000000        3.4577500000
  O        13.5634000000       13.5086000000       10.3879000000
  O         3.6270000000        1.2100800000        0.0153519000
  O         3.6998900000        1.2140200000        6.9257200000
  O         3.6893400000        6.0688300000       13.8397000000
  O         3.7010600000        6.1537000000        6.9053100000
  O         3.6343800000       11.0294000000        0.0480927000
  O         3.6623600000       11.0155000000        7.0591700000
  O         8.5797400000        1.2112900000       13.8233000000
  O         8.6781900000        1.2425800000        6.8294000000
  O         8.6457000000        6.1561000000        0.0077252600
  O         8.5676400000        6.1009700000        6.9999600000
  O         8.6378000000       11.0245000000        0.0713864000
  O         8.5918600000       11.0031000000        7.0128000000
  O        13.4955000000        1.2849600000        0.0112852000
  O        13.5591000000        1.2165500000        6.9204600000
  O        13.5043000000        6.1959900000       13.8351000000
  O        13.5161000000        6.1090800000        6.9119800000
  O        13.5486000000       11.0266000000        0.0041217400
  O        13.5049000000       11.0235000000        6.9723500000
  O         1.1804200000        1.1698100000        0.0029830700
  O         1.2003500000        1.2595300000        6.9132500000
  O         1.1723200000        6.1050900000       13.8098000000
  O         1.2464900000        6.1841900000        6.8938500000
  O         1.2084600000       10.9870000000        0.0264545000
  O         1.1814700000       11.1431000000        6.9847800000
  O         6.1094600000        1.2240500000        0.0152818000
  O         6.1903400000        1.1991700000        6.8902300000
  O         6.1804600000        6.0833100000        0.0738144000
  O         6.1026500000        6.2152800000        6.9903700000
  O         6.0711800000       10.9672000000       13.8591000000
  O         6.1153000000       11.0374000000        6.9111400000
  O        10.9765000000        1.2820500000       13.8426000000
  O        11.1015000000        1.2005400000        6.9513200000
  O        11.0589000000        6.1955600000       13.8606000000
  O        10.9301000000        6.0463800000        6.9593600000
  O        11.0722000000       11.0224000000        0.0130532000
  O        11.0908000000       11.0399000000        6.9982800000
 Si        14.7171000000       14.7198000000       13.8489000000
 Si         0.0266973000       14.7067000000        7.0005200000
 Si        14.6931000000        4.9257600000       13.8624000000
 Si        14.7076000000        4.8783300000        6.8966800000
 Si        14.6546000000        9.8195600000       13.8533000000
 Si         0.0225459000        9.8528700000        7.0086500000
 Si         4.8738400000        0.0107186000       13.8473000000
 Si         4.9179100000        0.0400500000        6.9434900000
 Si         4.9665000000        4.8690500000        0.0152255000
 Si         4.9124800000        4.9437100000        6.9237600000
 Si         4.9130900000        9.8026700000        0.0527966000
 Si         4.8758200000        9.7996700000        6.9992800000
 Si         9.8206600000        0.0195019000       13.8802000000
 Si         9.8212600000       14.7079000000        6.8892300000
 Si         9.8859700000        4.9176700000        0.0365415000
 Si         9.8078100000        4.8663900000        6.9152000000
 Si         9.8433100000        9.7805900000       13.8570000000
 Si         9.7941100000        9.7890900000        6.9146100000
 Si         2.3989000000        2.4223200000        0.0223608000
 Si         2.4475500000        2.4481900000        6.9537300000
 Si         2.4600800000        7.3609500000        0.0129618000
 Si         2.4472300000        7.3967600000        6.9564900000
 Si         2.3850100000       12.1801000000        0.0073098600
 Si         2.4788800000       12.3050000000        6.9513900000
 Si         7.3563400000        2.5050000000       13.8783000000
 Si         7.3209600000        2.4732900000        6.9329900000
 Si         7.3916800000        7.3427600000        0.0022181200
 Si         7.3212900000        7.3779400000        6.9232200000
 Si         7.3515600000       12.2548000000        0.0248703000
 Si         7.2661100000       12.2535000000        6.9365600000
 Si        12.2349000000        2.5109100000       13.8704000000
 Si        12.2433000000        2.4528500000        6.9340500000
 Si        12.2545000000        7.3533500000       13.8392000000
 Si        12.1967000000        7.3260300000        6.8970400000
 Si        12.2523000000       12.3380000000       13.8395000000
 Si        12.2966000000       12.3102000000        6.9926500000
 Si         0.0366511000       14.7138000000        3.4802300000
 Si         0.0279565000       14.7072000000       10.4567000000
 Si         0.0155010000        4.9088100000        3.4273100000
 Si         0.0323715000        4.9189900000       10.4180000000
 Si         0.0006294140        9.8262700000        3.4414700000
 Si        14.6932000000        9.8029600000       10.4010000000
 Si         4.9228400000        0.0156105000        3.4722000000
 Si         4.8997300000        0.0110661000       10.4366000000
 Si         4.8874100000        4.9265300000        3.4651400000
 Si         4.9654900000        4.9144600000       10.4504000000
 Si         4.9132300000        9.8524700000        3.4987100000
 Si         4.9416500000        9.8038000000       10.4693000000
 Si         9.8975400000       14.6942000000        3.5144800000
 Si         9.7909100000       14.7236000000       10.4057000000
 Si         9.8591800000        4.8810600000        3.4626900000
 Si         9.8704400000        4.8786800000       10.3995000000
 Si         9.8496100000        9.8456300000        3.4854800000
 Si         9.7989400000        9.7441200000       10.3640000000
 Si         2.4595300000        2.4330900000        3.4266900000
 Si         2.4245800000        2.4260800000       10.4598000000
 Si         2.4905600000        7.4041600000        3.4772500000
 Si         2.4883700000        7.3886600000       10.4545000000
 Si         2.4689500000       12.2447000000        3.5144000000
 Si         2.4786100000       12.2576000000       10.4410000000
 Si         7.3536900000        2.4168400000        3.4276100000
 Si         7.3859800000        2.4654600000       10.3969000000
 Si         7.4479400000        7.3783400000        3.5173100000
 Si         7.3624500000        7.3567300000       10.3829000000
 Si         7.3716900000       12.2791000000        3.4663900000
 Si         7.3379300000       12.2163000000       10.3941000000
 Si        12.2585000000        2.4350500000        3.4160600000
 Si        12.3185000000        2.4893700000       10.3588000000
 Si        12.2883000000        7.3513700000        3.4403700000
 Si        12.3239000000        7.3703900000       10.4286000000
 Si        12.3105000000       12.3261000000        3.4816100000
 Si        12.2878000000       12.2460000000       10.4032000000
 Ca         2.4254400000       14.5944000000        1.7496200000
 Ca         2.4395700000        0.0481825000        8.6944300000
 Ca         2.4364700000        4.8487000000        1.7322200000
 Ca         2.5282700000        4.9672500000        8.6522700000
 Ca         2.4213400000        9.8155500000        1.7143700000
 Ca         2.4832500000        9.8390500000        8.6952900000
 Ca         7.3702000000        0.0107764000        1.7112000000
 Ca         7.3928200000       14.6758000000        8.7306500000
 Ca         7.3510700000        4.8884500000        1.8031200000
 Ca         7.3477600000        5.0111900000        8.6969400000
 Ca         7.4518000000        9.8420800000        1.8107900000
 Ca         7.3766300000        9.7983000000        8.6774600000
 Ca        12.2616000000       14.7232000000        1.7442300000
 Ca        12.2325000000        0.0587177000        8.6548000000
 Ca        12.2753000000        4.9655500000        1.7433000000
 Ca        12.3347000000        4.9299000000        8.6160500000
 Ca        12.2174000000        9.8699400000        1.6597300000
 Ca        12.2518000000        9.8462900000        8.6672400000
 Ca        14.6815000000        2.4596300000        5.1580200000
 Ca        14.7084000000        2.4731500000       12.1497000000
 Ca         0.0392442000        7.3691700000        5.2559100000
 Ca        14.7223000000        7.4309600000       12.1109000000
 Ca         0.0538695000       12.2161000000        5.1905300000
 Ca        14.7120000000       12.2641000000       12.0754000000
 Ca         4.8933200000        2.4377600000        5.1966500000
 Ca         4.9209200000        2.4087400000       12.1291000000
 Ca         4.9291700000        7.3522200000        5.2077800000
 Ca         4.9446900000        7.3685400000       12.1733000000
 Ca         4.8851000000       12.2769000000        5.2179600000
 Ca         4.8840200000       12.2901000000       12.2606000000
 Ca         9.8671600000        2.3904800000        5.1727100000
 Ca         9.8368000000        2.4807500000       12.1455000000
 Ca         9.8275200000        7.3726600000        5.2638600000
 Ca         9.8127100000        7.3256100000       12.0566000000
 Ca         9.8264400000       12.2662000000        5.3236200000
 Ca         9.7795100000       12.1848000000       12.1377000000
 Ca         2.4091200000        0.0533292000        5.1296300000
 Ca         2.4531600000        0.0004154220       12.1299000000
 Ca         2.4948900000        4.8629300000        5.1600500000
 Ca         2.5132400000        4.9208700000       12.1518000000
 Ca         2.4572200000        9.9551400000        5.1979800000
 Ca         2.4320600000        9.7647300000       12.2365000000
 Ca         7.3564700000        0.0970215000        5.2163000000
 Ca         7.3369300000       14.6874000000       12.2119000000
 Ca         7.3727500000        4.9013700000        5.1633100000
 Ca         7.4854000000        4.9250000000       12.1520000000
 Ca         7.3880900000        9.8459200000        5.2760500000
 Ca         7.3988700000        9.7859900000       12.2602000000
 Ca        12.3294000000        0.0430928000        5.2560600000
 Ca        12.2911000000        0.0061201000       12.0507000000
 Ca        12.3201000000        4.8820700000        5.1666600000
 Ca        12.2564000000        4.8467700000       12.1334000000
 Ca        12.2936000000        9.8789100000        5.1801600000
 Ca        12.2628000000        9.7626900000       12.1238000000
 Ca        14.6730000000        2.4704300000        1.6976200000
 Ca         0.0391335000        2.3834400000        8.6469100000
 Ca         0.0478123000        7.3447600000        1.6620700000
 Ca        14.7137000000        7.2882400000        8.6403200000
 Ca         0.0225426000       12.3343000000        1.6756100000
 Ca         0.0376716000       12.2289000000        8.7060500000
 Ca         4.8258700000        2.5281900000        1.6933300000
 Ca         4.8588400000        2.4858200000        8.7612400000
 Ca         4.9037300000        7.3620200000        1.7232700000
 Ca         4.8846800000        7.3647300000        8.7084300000
 Ca         4.8624800000       12.2882000000        1.8192800000
 Ca         4.8712100000       12.3353000000        8.7023100000
 Ca         9.8176300000        2.4422000000        1.7754600000
 Ca         9.8076500000        2.4340800000        8.6259100000
 Ca         9.7992800000        7.3423400000        1.7076500000
 Ca         9.8101500000        7.3262400000        8.6532000000
 Ca         9.8499700000       12.3211000000        1.7745900000
 Ca         9.8639700000       12.2773000000        8.6216900000
