     256
 i =        0, time =        0.000, E =        -0.8062955485
 Ar         0.0000000000        0.0000000000        0.0000000000
 Ar         0.0000000000       -0.0000000000        0.0000000000
 Ar         0.0000000000        0.0000000000        0.0000000000
 Ar         0.0000000000        0.0000000000        0.0000000000
 Ar         0.0000000000        0.0000000000       -0.0000000000
 Ar         0.0000000000        0.0000000000       -0.0000000000
 Ar         0.0000000000        0.0000000000        0.0000000000
 Ar         0.0000000000        0.0000000000        0.0000000000
 Ar         0.0000000000        0.0000000000       -0.0000000000
 Ar         0.0000000000        0.0000000000       -0.0000000000
 Ar         0.0000000000        0.0000000000       -0.0000000000
 Ar         0.0000000000        0.0000000000       -0.0000000000
 Ar         0.0000000000        0.0000000000        0.0000000000
 Ar        -0.0000000000       -0.0000000000        0.0000000000
 Ar         0.0000000000        0.0000000000       -0.0000000000
 Ar         0.0000000000        0.0000000000       -0.0000000000
 Ar         0.0000000000       -0.0000000000        0.0000000000
 Ar         0.0000000000        0.0000000000        0.0000000000
 Ar         0.0000000000       -0.0000000000        0.0000000000
 Ar         0.0000000000        0.0000000000        0.0000000000
 Ar         0.0000000000       -0.0000000000       -0.0000000000
 Ar        -0.0000000000        0.0000000000       -0.0000000000
 Ar         0.0000000000       -0.0000000000        0.0000000000
 Ar         0.0000000000        0.0000000000        0.0000000000
 Ar         0.0000000000       -0.0000000000       -0.0000000000
 Ar         0.0000000000        0.0000000000       -0.0000000000
 Ar         0.0000000000       -0.0000000000       -0.0000000000
 Ar         0.0000000000        0.0000000000       -0.0000000000
 Ar         0.0000000000       -0.0000000000        0.0000000000
 Ar         0.0000000000        0.0000000000        0.0000000000
 Ar         0.0000000000       -0.0000000000       -0.0000000000
 Ar         0.0000000000        0.0000000000       -0.0000000000
 Ar         0.0000000000       -0.0000000000        0.0000000000
 Ar        -0.0000000000       -0.0000000000        0.0000000000
 Ar        -0.0000000000       -0.0000000000        0.0000000000
 Ar         0.0000000000       -0.0000000000        0.0000000000
 Ar         0.0000000000       -0.0000000000       -0.0000000000
 Ar         0.0000000000       -0.0000000000       -0.0000000000
 Ar        -0.0000000000       -0.0000000000        0.0000000000
 Ar         0.0000000000       -0.0000000000        0.0000000000
 Ar         0.0000000000       -0.0000000000       -0.0000000000
 Ar        -0.0000000000       -0.0000000000       -0.0000000000
 Ar         0.0000000000       -0.0000000000       -0.0000000000
 Ar         0.0000000000       -0.0000000000       -0.0000000000
 Ar         0.0000000000       -0.0000000000        0.0000000000
 Ar         0.0000000000       -0.0000000000        0.0000000000
 Ar         0.0000000000       -0.0000000000       -0.0000000000
 Ar         0.0000000000       -0.0000000000       -0.0000000000
 Ar         0.0000000000        0.0000000000        0.0000000000
 Ar         0.0000000000       -0.0000000000        0.0000000000
 Ar         0.0000000000        0.0000000000       -0.0000000000
 Ar         0.0000000000       -0.0000000000       -0.0000000000
 Ar         0.0000000000        0.0000000000       -0.0000000000
 Ar         0.0000000000       -0.0000000000       -0.0000000000
 Ar         0.0000000000        0.0000000000        0.0000000000
 Ar         0.0000000000       -0.0000000000        0.0000000000
 Ar         0.0000000000        0.0000000000       -0.0000000000
 Ar         0.0000000000       -0.0000000000       -0.0000000000
 Ar         0.0000000000        0.0000000000       -0.0000000000
 Ar         0.0000000000       -0.0000000000       -0.0000000000
 Ar         0.0000000000        0.0000000000        0.0000000000
 Ar        -0.0000000000       -0.0000000000        0.0000000000
 Ar        -0.0000000000        0.0000000000       -0.0000000000
 Ar         0.0000000000       -0.0000000000       -0.0000000000
 Ar        -0.0000000000        0.0000000000        0.0000000000
 Ar         0.0000000000        0.0000000000        0.0000000000
 Ar         0.0000000000        0.0000000000        0.0000000000
 Ar        -0.0000000000        0.0000000000        0.0000000000
 Ar        -0.0000000000        0.0000000000       -0.0000000000
 Ar         0.0000000000       -0.0000000000       -0.0000000000
 Ar         0.0000000000        0.0000000000        0.0000000000
 Ar        -0.0000000000        0.0000000000        0.0000000000
 Ar        -0.0000000000        0.0000000000       -0.0000000000
 Ar         0.0000000000        0.0000000000       -0.0000000000
 Ar         0.0000000000        0.0000000000       -0.0000000000
 Ar        -0.0000000000        0.0000000000       -0.0000000000
 Ar        -0.0000000000        0.0000000000        0.0000000000
 Ar         0.0000000000        0.0000000000        0.0000000000
 Ar         0.0000000000        0.0000000000       -0.0000000000
 Ar        -0.0000000000        0.0000000000       -0.0000000000
 Ar        -0.0000000000       -0.0000000000        0.0000000000
 Ar         0.0000000000        0.0000000000        0.0000000000
 Ar         0.0000000000       -0.0000000000        0.0000000000
 Ar        -0.0000000000        0.0000000000        0.0000000000
 Ar        -0.0000000000       -0.0000000000       -0.0000000000
 Ar         0.0000000000        0.0000000000       -0.0000000000
 Ar         0.0000000000       -0.0000000000        0.0000000000
 Ar        -0.0000000000        0.0000000000        0.0000000000
 Ar        -0.0000000000       -0.0000000000       -0.0000000000
 Ar         0.0000000000        0.0000000000       -0.0000000000
 Ar         0.0000000000       -0.0000000000       -0.0000000000
 Ar        -0.0000000000        0.0000000000       -0.0000000000
 Ar        -0.0000000000       -0.0000000000        0.0000000000
 Ar         0.0000000000        0.0000000000        0.0000000000
 Ar         0.0000000000       -0.0000000000       -0.0000000000
 Ar        -0.0000000000        0.0000000000       -0.0000000000
 Ar        -0.0000000000       -0.0000000000        0.0000000000
 Ar         0.0000000000       -0.0000000000        0.0000000000
 Ar         0.0000000000       -0.0000000000        0.0000000000
 Ar        -0.0000000000       -0.0000000000        0.0000000000
 Ar        -0.0000000000       -0.0000000000       -0.0000000000
 Ar         0.0000000000       -0.0000000000       -0.0000000000
 Ar         0.0000000000       -0.0000000000        0.0000000000
 Ar        -0.0000000000       -0.0000000000        0.0000000000
 Ar        -0.0000000000       -0.0000000000       -0.0000000000
 Ar         0.0000000000       -0.0000000000       -0.0000000000
 Ar         0.0000000000       -0.0000000000       -0.0000000000
 Ar        -0.0000000000       -0.0000000000       -0.0000000000
 Ar        -0.0000000000       -0.0000000000        0.0000000000
 Ar         0.0000000000       -0.0000000000        0.0000000000
 Ar         0.0000000000       -0.0000000000       -0.0000000000
 Ar        -0.0000000000       -0.0000000000       -0.0000000000
 Ar        -0.0000000000        0.0000000000        0.0000000000
 Ar         0.0000000000       -0.0000000000        0.0000000000
 Ar         0.0000000000        0.0000000000        0.0000000000
 Ar        -0.0000000000       -0.0000000000        0.0000000000
 Ar        -0.0000000000        0.0000000000       -0.0000000000
 Ar         0.0000000000       -0.0000000000       -0.0000000000
 Ar         0.0000000000        0.0000000000        0.0000000000
 Ar        -0.0000000000       -0.0000000000        0.0000000000
 Ar        -0.0000000000        0.0000000000       -0.0000000000
 Ar         0.0000000000       -0.0000000000       -0.0000000000
 Ar         0.0000000000        0.0000000000       -0.0000000000
 Ar        -0.0000000000       -0.0000000000       -0.0000000000
 Ar        -0.0000000000        0.0000000000        0.0000000000
 Ar         0.0000000000       -0.0000000000        0.0000000000
 Ar         0.0000000000        0.0000000000       -0.0000000000
 Ar        -0.0000000000       -0.0000000000       -0.0000000000
 Ar        -0.0000000000        0.0000000000        0.0000000000
 Ar        -0.0000000000        0.0000000000        0.0000000000
 Ar        -0.0000000000        0.0000000000       -0.0000000000
 Ar        -0.0000000000        0.0000000000        0.0000000000
 Ar        -0.0000000000        0.0000000000       -0.0000000000
 Ar        -0.0000000000        0.0000000000       -0.0000000000
 Ar        -0.0000000000        0.0000000000        0.0000000000
 Ar        -0.0000000000        0.0000000000        0.0000000000
 Ar        -0.0000000000        0.0000000000       -0.0000000000
 Ar        -0.0000000000        0.0000000000       -0.0000000000
 Ar        -0.0000000000        0.0000000000       -0.0000000000
 Ar        -0.0000000000        0.0000000000       -0.0000000000
 Ar        -0.0000000000        0.0000000000        0.0000000000
 Ar        -0.0000000000        0.0000000000        0.0000000000
 Ar        -0.0000000000        0.0000000000       -0.0000000000
 Ar        -0.0000000000        0.0000000000       -0.0000000000
 Ar        -0.0000000000       -0.0000000000        0.0000000000
 Ar        -0.0000000000        0.0000000000        0.0000000000
 Ar        -0.0000000000       -0.0000000000        0.0000000000
 Ar        -0.0000000000        0.0000000000        0.0000000000
 Ar        -0.0000000000       -0.0000000000       -0.0000000000
 Ar        -0.0000000000        0.0000000000       -0.0000000000
 Ar        -0.0000000000       -0.0000000000        0.0000000000
 Ar        -0.0000000000        0.0000000000        0.0000000000
 Ar        -0.0000000000       -0.0000000000       -0.0000000000
 Ar        -0.0000000000        0.0000000000       -0.0000000000
 Ar        -0.0000000000       -0.0000000000       -0.0000000000
 Ar        -0.0000000000        0.0000000000       -0.0000000000
 Ar        -0.0000000000       -0.0000000000        0.0000000000
 Ar        -0.0000000000        0.0000000000        0.0000000000
 Ar        -0.0000000000       -0.0000000000       -0.0000000000
 Ar        -0.0000000000        0.0000000000       -0.0000000000
 Ar        -0.0000000000       -0.0000000000        0.0000000000
 Ar        -0.0000000000       -0.0000000000        0.0000000000
 Ar        -0.0000000000       -0.0000000000        0.0000000000
 Ar        -0.0000000000       -0.0000000000        0.0000000000
 Ar        -0.0000000000       -0.0000000000       -0.0000000000
 Ar        -0.0000000000       -0.0000000000       -0.0000000000
 Ar        -0.0000000000       -0.0000000000        0.0000000000
 Ar        -0.0000000000       -0.0000000000        0.0000000000
 Ar        -0.0000000000       -0.0000000000       -0.0000000000
 Ar        -0.0000000000       -0.0000000000       -0.0000000000
 Ar        -0.0000000000       -0.0000000000       -0.0000000000
 Ar        -0.0000000000       -0.0000000000       -0.0000000000
 Ar        -0.0000000000       -0.0000000000        0.0000000000
 Ar        -0.0000000000       -0.0000000000        0.0000000000
 Ar        -0.0000000000       -0.0000000000       -0.0000000000
 Ar        -0.0000000000       -0.0000000000       -0.0000000000
 Ar        -0.0000000000        0.0000000000        0.0000000000
 Ar        -0.0000000000       -0.0000000000        0.0000000000
 Ar        -0.0000000000        0.0000000000       -0.0000000000
 Ar        -0.0000000000       -0.0000000000        0.0000000000
 Ar        -0.0000000000        0.0000000000       -0.0000000000
 Ar        -0.0000000000       -0.0000000000       -0.0000000000
 Ar        -0.0000000000        0.0000000000        0.0000000000
 Ar        -0.0000000000       -0.0000000000        0.0000000000
 Ar        -0.0000000000        0.0000000000       -0.0000000000
 Ar        -0.0000000000       -0.0000000000       -0.0000000000
 Ar        -0.0000000000        0.0000000000       -0.0000000000
 Ar        -0.0000000000       -0.0000000000       -0.0000000000
 Ar        -0.0000000000        0.0000000000        0.0000000000
 Ar        -0.0000000000       -0.0000000000        0.0000000000
 Ar        -0.0000000000        0.0000000000       -0.0000000000
 Ar        -0.0000000000       -0.0000000000       -0.0000000000
 Ar         0.0000000000        0.0000000000        0.0000000000
 Ar        -0.0000000000        0.0000000000        0.0000000000
 Ar        -0.0000000000        0.0000000000        0.0000000000
 Ar         0.0000000000        0.0000000000       -0.0000000000
 Ar         0.0000000000        0.0000000000       -0.0000000000
 Ar        -0.0000000000        0.0000000000       -0.0000000000
 Ar        -0.0000000000        0.0000000000        0.0000000000
 Ar         0.0000000000        0.0000000000        0.0000000000
 Ar         0.0000000000        0.0000000000       -0.0000000000
 Ar        -0.0000000000        0.0000000000       -0.0000000000
 Ar        -0.0000000000        0.0000000000       -0.0000000000
 Ar         0.0000000000        0.0000000000       -0.0000000000
 Ar         0.0000000000        0.0000000000        0.0000000000
 Ar        -0.0000000000        0.0000000000        0.0000000000
 Ar        -0.0000000000        0.0000000000       -0.0000000000
 Ar         0.0000000000        0.0000000000       -0.0000000000
 Ar         0.0000000000       -0.0000000000        0.0000000000
 Ar        -0.0000000000        0.0000000000        0.0000000000
 Ar        -0.0000000000       -0.0000000000        0.0000000000
 Ar         0.0000000000        0.0000000000        0.0000000000
 Ar         0.0000000000       -0.0000000000       -0.0000000000
 Ar        -0.0000000000        0.0000000000       -0.0000000000
 Ar        -0.0000000000       -0.0000000000        0.0000000000
 Ar         0.0000000000        0.0000000000        0.0000000000
 Ar         0.0000000000       -0.0000000000       -0.0000000000
 Ar        -0.0000000000        0.0000000000       -0.0000000000
 Ar        -0.0000000000       -0.0000000000       -0.0000000000
 Ar         0.0000000000        0.0000000000       -0.0000000000
 Ar         0.0000000000       -0.0000000000        0.0000000000
 Ar        -0.0000000000        0.0000000000        0.0000000000
 Ar        -0.0000000000       -0.0000000000       -0.0000000000
 Ar         0.0000000000        0.0000000000       -0.0000000000
 Ar         0.0000000000       -0.0000000000        0.0000000000
 Ar        -0.0000000000       -0.0000000000        0.0000000000
 Ar        -0.0000000000       -0.0000000000        0.0000000000
 Ar         0.0000000000       -0.0000000000        0.0000000000
 Ar         0.0000000000       -0.0000000000       -0.0000000000
 Ar        -0.0000000000       -0.0000000000       -0.0000000000
 Ar        -0.0000000000       -0.0000000000        0.0000000000
 Ar         0.0000000000       -0.0000000000        0.0000000000
 Ar         0.0000000000       -0.0000000000       -0.0000000000
 Ar        -0.0000000000       -0.0000000000       -0.0000000000
 Ar        -0.0000000000       -0.0000000000       -0.0000000000
 Ar         0.0000000000       -0.0000000000       -0.0000000000
 Ar         0.0000000000       -0.0000000000        0.0000000000
 Ar        -0.0000000000       -0.0000000000        0.0000000000
 Ar        -0.0000000000       -0.0000000000       -0.0000000000
 Ar         0.0000000000       -0.0000000000       -0.0000000000
 Ar         0.0000000000        0.0000000000        0.0000000000
 Ar        -0.0000000000       -0.0000000000        0.0000000000
 Ar        -0.0000000000        0.0000000000        0.0000000000
 Ar         0.0000000000       -0.0000000000        0.0000000000
 Ar         0.0000000000        0.0000000000       -0.0000000000
 Ar        -0.0000000000       -0.0000000000       -0.0000000000
 Ar        -0.0000000000        0.0000000000        0.0000000000
 Ar         0.0000000000       -0.0000000000        0.0000000000
 Ar         0.0000000000        0.0000000000       -0.0000000000
 Ar        -0.0000000000       -0.0000000000       -0.0000000000
 Ar        -0.0000000000        0.0000000000       -0.0000000000
 Ar         0.0000000000       -0.0000000000       -0.0000000000
 Ar         0.0000000000        0.0000000000        0.0000000000
 Ar        -0.0000000000       -0.0000000000        0.0000000000
 Ar        -0.0000000000        0.0000000000       -0.0000000000
 Ar         0.0000000000       -0.0000000000       -0.0000000000
