     360
 i =        0, time =        0.000, E =      -391.9454993386
  O         0.0235145523       14.7030253712        1.7372066242
  O         0.0768987366        0.0201055509        8.6606419420
  O        14.6594941960        4.8483298973        1.6748255549
  O        14.7018180743        4.9638520603        8.6651511754
  O        14.6828976480        9.7692166169        1.6953625197
  O         0.0159142668        9.9095955844        8.7547272593
  O         4.9888862158       14.7075831319        1.7801460607
  O         4.8810715947        0.0416443058        8.6714751071
  O         4.8627926778        4.8255193424        1.7277961334
  O         4.9108609881        4.8813879027        8.6537480232
  O         4.9034915304        9.8078483805        1.7736693624
  O         4.9539794301        9.8201126140        8.6472662095
  O         9.7890733976        0.0709264252        1.7363744540
  O         9.7754590036       14.6956670706        8.6414537325
  O         9.8431513392        4.9108526857        1.7174500912
  O         9.8371294902        4.8413609331        8.6803746534
  O         9.8469299030        9.8540418493        1.7840256333
  O         9.7921843923        9.7987173168        8.6746206811
  O         2.4523074449        2.4140348535        5.1829243777
  O         2.4026262176        2.4119872923       12.1497648370
  O         2.4778251542        7.4073809316        5.1786349183
  O         2.5255744884        7.3367558460       12.1656626792
  O         2.4661401807       12.3408062938        5.2415138851
  O         2.4521491681       12.1322669715       12.1778141060
  O         7.2858047299        2.4634493504        5.2425375353
  O         7.3310646253        2.5029441777       12.1481078956
  O         7.3612307774        7.2943200560        5.2180139882
  O         7.3758032013        7.3547892322       12.2187805434
  O         7.3651301024       12.2721378084        5.2303624339
  O         7.3472711827       12.1910775103       12.1223438511
  O        12.3008603178        2.4623304657        5.1750148397
  O        12.2010587336        2.3868374874       12.1460454709
  O        12.2267746617        7.2684898309        5.2462967935
  O        12.2165579763        7.4333855097       12.0780701412
  O        12.3712420790       12.3133161989        5.2131029084
  O        12.2903630068       12.3746001218       12.1733619946
  O         0.0483506711        0.0059488188        5.2069729209
  O        14.6581487209        0.0261262887       12.1456931160
  O        14.6742489553        4.8251162952        5.1865794639
  O         0.0003508756        4.8596789103       12.1311081979
  O         0.0506012783        9.8684939533        5.2726892211
  O        14.6020108337        9.8255150854       12.0948204764
  O         4.8699228325        0.0834753886        5.2038264229
  O         4.9061222514       14.7029045351       12.1889944166
  O         4.8682947515        4.9076936940        5.1876746399
  O         4.9230808622        4.8588900410       12.1331556588
  O         4.8952231448        9.8419624719        5.2758474652
  O         4.8709147024        9.7436213261       12.1857617228
  O         9.8811326292        0.0144915433        5.2069770518
  O         9.8123458988       14.6818359608       12.1438839770
  O         9.7426498233        4.8133251250        5.1746043694
  O         9.8357376759        4.9324454663       12.1480730007
  O         9.8238050344        9.7843370295        5.2979627482
  O         9.8165089933        9.7841395278       12.1816316880
  O         2.4002491529        2.4730211467        1.7326337051
  O         2.5514469702        2.3807843124        8.7145165048
  O         2.4107603811        7.3702489613        1.6965182904
  O         2.4544264539        7.3189533868        8.6692051933
  O         2.4663125932       12.2483645648        1.7416733894
  O         2.5035402362       12.3430035763        8.7706824069
  O         7.4262148244        2.4028606921        1.7174348017
  O         7.3309956768        2.4095510558        8.6013260525
  O         7.4081239712        7.4122798473        1.8449532669
  O         7.3379981218        7.3659069711        8.7092117127
  O         7.4225336942       12.1767728367        1.7539688050
  O         7.2657788550       12.2827161903        8.6546690754
  O        12.2272545511        2.4577364746        1.7080020298
  O        12.2466168725        2.4458441895        8.7018446658
  O        12.3906222383        7.3921274851        1.7437566719
  O        12.2705450723        7.2408331595        8.6010559688
  O        12.2478101861       12.2788987967        1.7465084005
  O        12.3800986558       12.2538549843        8.6627747265
  O         3.5806593829        1.1913326587        3.3222320998
  O         3.6723249906        1.2338700262       10.4825942563
  O         3.6095282537        6.2004074025        3.4157289948
  O         3.7102405296        6.1156578005       10.4722431254
  O         3.6878354666       11.0829918527        3.5066511959
  O         3.6956615396       11.0028884717       10.4830077478
  O         8.6285740076        1.2876913050        3.5273280996
  O         8.5665759193        1.3125672124       10.4305856322
  O         8.5991853844        6.0965208121        3.4922840420
  O         8.6184771726        6.2350949141       10.3760658918
  O         8.5590960097       11.0612026328        3.5617936452
  O         8.6142334548       11.0897090701       10.4032365588
  O        13.4702782828        1.2918663476        3.4687913462
  O        13.4442274249        1.2803706998       10.4084721880
  O        13.4866808966        6.1105198512        3.4991312530
  O        13.5508462227        6.1862701882       10.4329764247
  O        13.5413356695       11.1151302089        3.4220303101
  O        13.4710278316       11.0766481512       10.4518165234
  O         1.1764371750        1.2106771980        3.4356972078
  O         1.2244081708        1.2438250816       10.4390371136
  O         1.1915740742        6.1304660238        3.4249415015
  O         1.1986191895        6.1418613788       10.4586560622
  O         1.2756389046       11.0834069329        3.4867517615
  O         1.1612138191       11.0770202936       10.4067714819
  O         6.0926895734        1.2561583436        3.4907914782
  O         6.1326837214        1.2390732580       10.4361249584
  O         6.0594501197        6.1152821561        3.4259991363
  O         6.2028630222        6.1036561939       10.4511641588
  O         6.1152905875       11.1092498218        3.4707496528
  O         6.1342236341       11.0734142903       10.4613423179
  O        11.0323019680        1.2399115886        3.4266191402
  O        10.9918708664        1.1861945603       10.3474798165
  O        10.9875582116        6.1309367965        3.4457120940
  O        11.0561685811        6.1380383230       10.4404272706
  O        11.0430540688       11.1078397001        3.5334171741
  O        11.0001732731       11.0731269567       10.4483371049
  O         1.2409397553        3.6818760983       13.8747941597
  O         1.2465682840        3.7553640736        6.9771405786
  O         1.1808972638        8.5488938494       13.7647615933
  O         1.3186419023        8.6750691291        6.9281362179
  O         1.1635576410       13.4070557370       13.8714456194
  O         1.2862834118       13.5657002750        7.0145173474
  O         6.2018496983        3.7138087998        0.0477200476
  O         6.1087807841        3.7768883253        6.8869949010
  O         6.1442219110        8.5849772396        0.0108002433
  O         6.2202742196        8.6529502037        6.9427242069
  O         6.1267842759       13.5116509334       13.8359802307
  O         6.1181531806       13.4843335578        6.9792936269
  O        11.0716475969        3.7591995314       13.8032614290
  O        11.0293219493        3.5909623227        6.8880116028
  O        11.0755056965        8.6216096468        0.0637463829
  O        11.0481126597        8.5537669011        6.9012575875
  O        10.9668235043       13.5046115943        0.0037302811
  O        11.0365646625       13.4794323018        6.9189912800
  O         3.7116255605        3.6338442192        0.0097264641
  O         3.6355838288        3.6877303029        6.8949203903
  O         3.6922913345        8.6171224962        0.0242124384
  O         3.7083032577        8.5699292807        6.9402282359
  O         3.6882499489       13.5299288425        0.0120424588
  O         3.7385236518       13.5140763525        6.9824915299
  O         8.6280964569        3.6856378573       13.8314346402
  O         8.5419412643        3.7056884337        6.9654619922
  O         8.6246721933        8.6185387357        0.1068291744
  O         8.6300888676        8.5421121266        6.9170172910
  O         8.5279868147       13.4808962544        0.0765439523
  O         8.6962099070       13.4411846751        6.8566411332
  O        13.5104936642        3.7103869876       13.8350941913
  O        13.4705879009        3.6731677439        6.9453802848
  O        13.4858069052        8.6118539673       13.8004481626
  O        13.5957725385        8.5781576312        6.9630120206
  O        13.4814376853       13.4830022622        0.0755859500
  O        13.5488291331       13.5393741517        6.9857960827
  O         1.1727958263        3.6216576653        3.4356607586
  O         1.2852140260        3.6281976935       10.3512798705
  O         1.2513569803        8.6441424908        3.3923966559
  O         1.2001161592        8.6013930568       10.4576630218
  O         1.2833961928       13.5227559916        3.4371233705
  O         1.1900752321       13.5204813215       10.4955637437
  O         6.1843722106        3.6997091956        3.4514847657
  O         6.1130236503        3.6640506542       10.4130337450
  O         6.1487361501        8.6103194693        3.5898135015
  O         6.1276739303        8.6128570416       10.4294611821
  O         6.2004354632       13.5690759789        3.4696573426
  O         6.0651844280       13.4734445985       10.4508268601
  O        11.0160144619        3.6795764656        3.4701302010
  O        11.0205938708        3.6836268412       10.3487523775
  O        11.0891213190        8.5774772205        3.4313231302
  O        11.0098904848        8.5921900724       10.3007381128
  O        11.1148293705       13.5152145172        3.4828310554
  O        11.0574182769       13.4892805548       10.3033372273
  O         3.7335243833        3.6636241062        3.4873094666
  O         3.7165238715        3.6186384659       10.4841646189
  O         3.7311278478        8.5269283923        3.5153954445
  O         3.7034995506        8.5457969062       10.3497725992
  O         3.7984107122       13.4700479257        3.5507992075
  O         3.6692218974       13.5033291183       10.4361657926
  O         8.6377272946        3.6595054511        3.3837312784
  O         8.5727261465        3.7287799535       10.3980826764
  O         8.6705532524        8.5610208432        3.4798554795
  O         8.6290280856        8.5852421380       10.4339856663
  O         8.6753076974       13.5009433521        3.4875753773
  O         8.5779144035       13.5175261886       10.3382619922
  O        13.5472465793        3.6717135703        3.4036976585
  O        13.5061012546        3.7334975122       10.3879893525
  O        13.5712040606        8.5851597855        3.5693638197
  O        13.5658908876        8.5472114532       10.3488803691
  O        13.5483473791       13.4941036677        3.4577557329
  O        13.5634065839       13.5085876496       10.3879118555
  O         3.6269972476        1.2100799906        0.0153519475
  O         3.6998924758        1.2140156089        6.9257230868
  O         3.6893454481        6.0688311321       13.8397026045
  O         3.7010576477        6.1537069932        6.9053126416
  O         3.6343811273       11.0293771787        0.0480927224
  O         3.6623649721       11.0154894515        7.0591762316
  O         8.5797451098        1.2112906428       13.8233460011
  O         8.6781927729        1.2425762740        6.8294058446
  O         8.6457026496        6.1561001189        0.0077252640
  O         8.5676440755        6.1009686826        6.9999642113
  O         8.6378042719       11.0244860820        0.0713864599
  O         8.5918656273       11.0030799457        7.0128065628
  O        13.4955094594        1.2849570111        0.0112852446
  O        13.5591412776        1.2165491945        6.9204600088
  O        13.5043056185        6.1959887711       13.8350830135
  O        13.5160625249        6.1090795292        6.9119792710
  O        13.5485934370       11.0266379335        0.0041217427
  O        13.5049234951       11.0234543600        6.9723484002
  O         1.1804214155        1.1698099750        0.0029830740
  O         1.2003488073        1.2595303866        6.9132519639
  O         1.1723210050        6.1050889360       13.8097926335
  O         1.2464882737        6.1841943144        6.8938519590
  O         1.2084643448       10.9869579980        0.0264544829
  O         1.1814700712       11.1430643028        6.9847862921
  O         6.1094584283        1.2240517741        0.0152817835
  O         6.1903391952        1.1991729043        6.8902339525
  O         6.1804607751        6.0833110602        0.0738143980
  O         6.1026502502        6.2152843725        6.9903689780
  O         6.0711831018       10.9671809168       13.8590946219
  O         6.1153066904       11.0373951184        6.9111449438
  O        10.9765000995        1.2820457640       13.8426215164
  O        11.1015353123        1.2005447566        6.9513231165
  O        11.0589466546        6.1955594864       13.8605724291
  O        10.9300919427        6.0463814993        6.9593602777
  O        11.0722115388       11.0224228609        0.0130531917
  O        11.0908461132       11.0399516871        6.9982850709
 Si        14.7171517071       14.7198504879       13.8489438973
 Si         0.0266972726       14.7066604359        7.0005194077
 Si        14.6931367081        4.9257636734       13.8624432243
 Si        14.7075978761        4.8783341022        6.8966848984
 Si        14.6545907694        9.8195642188       13.8533325065
 Si         0.0225458822        9.8528741503        7.0086537628
 Si         4.8738408254        0.0107185819       13.8473175725
 Si         4.9179111356        0.0400500088        6.9434950411
 Si         4.9665012720        4.8690537670        0.0152254750
 Si         4.9124777314        4.9437116136        6.9237603673
 Si         4.9130892666        9.8026767426        0.0527965836
 Si         4.8758193422        9.7996754065        6.9992782372
 Si         9.8206606764        0.0195019168       13.8802350613
 Si         9.8212621604       14.7078934876        6.8892361700
 Si         9.8859729008        4.9176683901        0.0365415228
 Si         9.8078171155        4.8663918199        6.9152007821
 Si         9.8433181625        9.7805915144       13.8569836416
 Si         9.7941150344        9.7890975293        6.9146130317
 Si         2.3989048915        2.4223173136        0.0223607735
 Si         2.4475549618        2.4481933786        6.9537348066
 Si         2.4600798981        7.3609548381        0.0129618306
 Si         2.4472326396        7.3967625940        6.9564936308
 Si         2.3850091935       12.1800878169        0.0073098631
 Si         2.4788822448       12.3050423786        6.9513902937
 Si         7.3563392721        2.5050019656       13.8782970241
 Si         7.3209609774        2.4732906507        6.9329945109
 Si         7.3916830058        7.3427618646        0.0022181190
 Si         7.3212969888        7.3779413978        6.9232187220
 Si         7.3515673630       12.2547837744        0.0248703110
 Si         7.2661138665       12.2535292899        6.9365633404
 Si        12.2348646532        2.5109139733       13.8704077164
 Si        12.2433415928        2.4528534381        6.9340535150
 Si        12.2544965610        7.3533569005       13.8391616832
 Si        12.1967071016        7.3260361212        6.8970442824
 Si        12.2522627158       12.3379965282       13.8395334741
 Si        12.2966115560       12.3102108388        6.9926543608
 Si         0.0366511408       14.7137869576        3.4802352814
 Si         0.0279564922       14.7071837621       10.4567179387
 Si         0.0155010045        4.9088127199        3.4273073504
 Si         0.0323715177        4.9189963265       10.4180340920
 Si         0.0006294140        9.8262746280        3.4414707199
 Si        14.6932341186        9.8029674538       10.4010237431
 Si         4.9228408664        0.0156105505        3.4722028847
 Si         4.8997330715        0.0110660770       10.4365713522
 Si         4.8874073868        4.9265320503        3.4651430584
 Si         4.9654955172        4.9144620363       10.4503651854
 Si         4.9132277408        9.8524788755        3.4987120563
 Si         4.9416501061        9.8037997257       10.4693033137
 Si         9.8975431192       14.6941849380        3.5144836279
 Si         9.7909091288       14.7235727931       10.4057511104
 Si         9.8591801289        4.8810639668        3.4626914694
 Si         9.8704453533        4.8786819074       10.3995291149
 Si         9.8496150836        9.8456357010        3.4854851805
 Si         9.7989452534        9.7441259510       10.3639626048
 Si         2.4595301869        2.4330904406        3.4266877484
 Si         2.4245842542        2.4260823393       10.4598497872
 Si         2.4905600805        7.4041628651        3.4772558115
 Si         2.4883662247        7.3886633950       10.4545237838
 Si         2.4689552782       12.2446689666        3.5144045791
 Si         2.4786145587       12.2576294804       10.4410100594
 Si         7.3536894873        2.4168411853        3.4276129987
 Si         7.3859809321        2.4654575420       10.3969472979
 Si         7.4479470085        7.3783429263        3.5173126180
 Si         7.3624522934        7.3567332141       10.3828678575
 Si         7.3716924049       12.2790898853        3.4663911614
 Si         7.3379304400       12.2163019095       10.3941392784
 Si        12.2585091861        2.4350483307        3.4160579385
 Si        12.3185525553        2.4893705042       10.3588260168
 Si        12.2883228286        7.3513716627        3.4403762621
 Si        12.3238650173        7.3703946226       10.4285653330
 Si        12.3105261204       12.3261434763        3.4816103557
 Si        12.2878336234       12.2460369595       10.4032033166
 Ca         2.4254420708       14.5943776449        1.7496222599
 Ca         2.4395708996        0.0481825636        8.6944305007
 Ca         2.4364690260        4.8487036282        1.7322187130
 Ca         2.5282692963        4.9672529967        8.6522735502
 Ca         2.4213370136        9.8155530088        1.7143744955
 Ca         2.4832522531        9.8390576625        8.6952901992
 Ca         7.3702050598        0.0107764419        1.7111975356
 Ca         7.3928190866       14.6758252454        8.7306543003
 Ca         7.3510725258        4.8884475925        1.8031168892
 Ca         7.3477629373        5.0111937911        8.6969405083
 Ca         7.4518024939        9.8420828718        1.8107954464
 Ca         7.3766321524        9.7983027307        8.6774611365
 Ca        12.2616103572       14.7232088748        1.7442276784
 Ca        12.2324909111        0.0587177712        8.6548054571
 Ca        12.2752616655        4.9655521058        1.7433005225
 Ca        12.3347509212        4.9299027706        8.6160489170
 Ca        12.2173879905        9.8699410811        1.6597347557
 Ca        12.2518053750        9.8462982460        8.6672452034
 Ca        14.6814582422        2.4596311190        5.1580207092
 Ca        14.7084073320        2.4731514929       12.1497024873
 Ca         0.0392441757        7.3691690353        5.2559100481
 Ca        14.7222832461        7.4309639606       12.1108808512
 Ca         0.0538695662       12.2160687394        5.1905346163
 Ca        14.7119836846       12.2641085917       12.0753571986
 Ca         4.8933264307        2.4377653703        5.1966496605
 Ca         4.9209250527        2.4087441042       12.1290551392
 Ca         4.9291694585        7.3522241857        5.2077823256
 Ca         4.9446889224        7.3685413682       12.1732966945
 Ca         4.8850980487       12.2768576095        5.2179585260
 Ca         4.8840180526       12.2901329335       12.2605659334
 Ca         9.8671635262        2.3904778899        5.1727155354
 Ca         9.8368035986        2.4807521540       12.1454882711
 Ca         9.8275232093        7.3726616741        5.2638639859
 Ca         9.8127135340        7.3256132966       12.0566032386
 Ca         9.8264392021       12.2662245725        5.3236247022
 Ca         9.7795127141       12.1848360142       12.1376928030
 Ca         2.4091174773        0.0533292592        5.1296304162
 Ca         2.4531645002        0.0004154226       12.1299197870
 Ca         2.4948920658        4.8629280797        5.1600523773
 Ca         2.5132451090        4.9208678116       12.1517681102
 Ca         2.4572208546        9.9551412580        5.1979851878
 Ca         2.4320590492        9.7647300617       12.2365450819
 Ca         7.3564727380        0.0970215641        5.2163061362
 Ca         7.3369317510       14.6874554251       12.2119363956
 Ca         7.3727523170        4.9013768675        5.1633119444
 Ca         7.4854026150        4.9250001614       12.1519655104
 Ca         7.3880932965        9.8459274701        5.2760515766
 Ca         7.3988705006        9.7859967952       12.2601804268
 Ca        12.3293600598        0.0430928121        5.2560665244
 Ca        12.2910639093        0.0061200997       12.0506936866
 Ca        12.3200655821        4.8820733904        5.1666602749
 Ca        12.2564052754        4.8467705747       12.1333596529
 Ca        12.2935863675        9.8789108823        5.1801626011
 Ca        12.2627553211        9.7626951123       12.1237665258
 Ca        14.6729647980        2.4704346486        1.6976228595
 Ca         0.0391335431        2.3834379399        8.6469155720
 Ca         0.0478122874        7.3447676671        1.6620678677
 Ca        14.7136752046        7.2882464747        8.6403234518
 Ca         0.0225426135       12.3342835459        1.6756146202
 Ca         0.0376715728       12.2289430736        8.7060566359
 Ca         4.8258758937        2.5281940596        1.6933340449
 Ca         4.8588387920        2.4858248433        8.7612457103
 Ca         4.9037314214        7.3620264394        1.7232730315
 Ca         4.8846857693        7.3647281764        8.7084383837
 Ca         4.8624857785       12.2882513205        1.8192808678
 Ca         4.8712083873       12.3353525331        8.7023122871
 Ca         9.8176350129        2.4421977462        1.7754607483
 Ca         9.8076537763        2.4340811982        8.6259137707
 Ca         9.7992850134        7.3423421017        1.7076545758
 Ca         9.8101543649        7.3262390534        8.6532066702
 Ca         9.8499702150       12.3210679476        1.7745921612
 Ca         9.8639775369       12.2772963279        8.6216891813
